Version 4
SHEET 1 1000 680
WIRE -96 96 -160 96
WIRE 32 96 -16 96
WIRE 192 96 176 96
WIRE 240 96 192 96
WIRE 448 96 384 96
WIRE 608 96 592 96
WIRE 656 96 608 96
WIRE 816 96 656 96
WIRE -16 112 -16 96
WIRE 192 112 192 96
WIRE 384 112 384 96
WIRE 608 112 608 96
WIRE 816 112 816 96
WIRE 32 128 32 96
WIRE 240 128 240 96
WIRE 448 128 448 96
WIRE 656 128 656 96
WIRE -160 192 -160 176
WIRE 16 192 -16 192
WIRE 32 192 16 192
WIRE 224 192 192 192
WIRE 240 192 224 192
WIRE 416 192 384 192
WIRE 448 192 416 192
WIRE 608 208 608 192
WIRE 640 208 608 208
WIRE 656 208 656 192
WIRE 656 208 640 208
WIRE 16 224 16 192
WIRE 224 224 224 192
WIRE 416 224 416 192
WIRE 640 224 640 208
WIRE 816 224 816 192
FLAG -160 192 0
FLAG 16 224 0
FLAG 224 224 0
FLAG 416 224 0
FLAG 640 224 0
FLAG 816 224 0
SYMBOL ind 16 112 R270
WINDOW 0 32 56 VTop 2
WINDOW 3 5 56 VBottom 2
SYMATTR InstName L1
SYMATTR Value 99.23n
SYMBOL ind 224 112 R270
WINDOW 0 32 56 VTop 2
WINDOW 3 5 56 VBottom 2
SYMATTR InstName L2
SYMATTR Value 159.16n
SYMBOL ind 432 112 R270
WINDOW 0 32 56 VTop 2
WINDOW 3 5 56 VBottom 2
SYMATTR InstName L3
SYMATTR Value 99.23n
SYMBOL cap 16 128 R0
WINDOW 3 21 81 Left 2
SYMATTR InstName C1
SYMATTR Value 14.16p
SYMBOL cap 224 128 R0
WINDOW 3 14 78 Left 2
SYMATTR InstName C2
SYMATTR Value 57.36p
SYMBOL cap 432 128 R0
WINDOW 3 17 81 Left 2
SYMATTR InstName C3
SYMATTR Value 57.36p
SYMBOL res 0 80 R90
WINDOW 0 0 56 VBottom 2
WINDOW 3 32 56 VTop 2
SYMATTR InstName R1
SYMATTR Value 50
SYMBOL voltage -160 80 R0
WINDOW 0 47 96 Left 2
WINDOW 123 24 124 Left 2
WINDOW 39 0 0 Left 0
SYMATTR InstName V1
SYMATTR Value ""
SYMATTR Value2 AC 1
SYMBOL cap 640 128 R0
WINDOW 3 25 93 Left 2
SYMATTR InstName C4
SYMATTR Value 14.16p
SYMBOL res 800 96 R0
SYMATTR InstName R2
SYMATTR Value 50
SYMBOL ind 368 96 R0
WINDOW 3 -35 110 Left 2
SYMATTR InstName L4
SYMATTR Value 74.17p
SYMBOL ind 592 96 R0
WINDOW 3 -45 127 Left 2
SYMATTR InstName L5
SYMATTR Value 300.37p
SYMBOL ind 176 96 R0
WINDOW 3 -34 111 Left 2
SYMATTR InstName L6
SYMATTR Value 74.17p
SYMBOL ind -32 96 R0
WINDOW 3 -41 112 Left 2
SYMATTR InstName L7
SYMATTR Value 300.37p
SYMBOL cap 176 80 R90
WINDOW 0 0 32 VBottom 2
WINDOW 3 32 32 VTop 2
SYMATTR InstName C5
SYMATTR Value 42.87f
SYMBOL cap 384 80 R90
WINDOW 0 0 32 VBottom 2
WINDOW 3 32 32 VTop 2
SYMATTR InstName C6
SYMATTR Value 26.73f
SYMBOL cap 592 80 R90
WINDOW 0 0 32 VBottom 2
WINDOW 3 32 32 VTop 2
SYMATTR InstName C7
SYMATTR Value 42.87f
TEXT -192 248 Left 2 !.ac dec 1000 1Giga 4Giga
