Version 4
SHEET 1 880 680
WIRE -16 144 -64 144
WIRE 96 144 64 144
WIRE 128 144 96 144
WIRE 224 144 208 144
WIRE 256 144 224 144
WIRE 352 144 336 144
WIRE 384 144 352 144
WIRE 480 144 464 144
WIRE 592 144 480 144
WIRE 592 160 592 144
WIRE 96 176 96 144
WIRE 224 176 224 144
WIRE 352 176 352 144
WIRE 480 176 480 144
FLAG 96 240 0
FLAG 224 240 0
FLAG 352 240 0
FLAG 480 240 0
FLAG 592 240 0
FLAG -64 144 In
FLAG 592 144 Out
SYMBOL res 80 128 R90
WINDOW 0 0 56 VBottom 2
WINDOW 3 32 56 VTop 2
SYMATTR InstName R1
SYMATTR Value 1
SYMBOL res 608 256 R180
WINDOW 0 36 76 Left 2
WINDOW 3 35 54 Left 2
SYMATTR InstName R2
SYMATTR Value 1
SYMBOL ind 112 160 R270
WINDOW 0 32 56 VTop 2
WINDOW 3 5 56 VBottom 2
SYMATTR InstName L1
SYMATTR Value 1.247
SYMBOL ind 240 160 R270
WINDOW 0 32 56 VTop 2
WINDOW 3 5 56 VBottom 2
SYMATTR InstName L2
SYMATTR Value 2
SYMBOL ind 368 160 R270
WINDOW 0 32 56 VTop 2
WINDOW 3 5 56 VBottom 2
SYMATTR InstName L3
SYMATTR Value 1.247
SYMBOL cap 336 176 R0
WINDOW 0 37 32 Left 2
WINDOW 3 36 52 Left 2
SYMATTR InstName C1
SYMATTR Value 1.802
SYMBOL cap 208 176 R0
WINDOW 0 40 33 Left 2
WINDOW 3 38 53 Left 2
SYMATTR InstName C2
SYMATTR Value 1.802
SYMBOL cap 80 176 R0
WINDOW 0 43 33 Left 2
WINDOW 3 42 53 Left 2
SYMATTR InstName C3
SYMATTR Value 0.445
SYMBOL cap 464 176 R0
WINDOW 0 40 35 Left 2
WINDOW 3 37 55 Left 2
SYMATTR InstName C4
SYMATTR Value 0.445
